Version 4.1
SHEET 1 980 680
WIRE 288 80 64 80
WIRE 592 80 288 80
WIRE 672 80 592 80
WIRE 912 80 768 80
WIRE 288 112 288 80
WIRE 64 128 64 80
WIRE 592 208 592 80
WIRE 912 208 912 80
WIRE 288 256 288 192
WIRE 384 256 288 256
WIRE 528 256 464 256
WIRE 592 336 592 304
WIRE 720 336 720 144
WIRE 720 336 592 336
WIRE 288 352 288 256
WIRE 720 368 720 336
WIRE 64 528 64 208
WIRE 288 528 288 416
WIRE 288 528 64 528
WIRE 480 528 288 528
WIRE 720 528 720 448
WIRE 720 528 480 528
WIRE 912 528 912 288
WIRE 912 528 720 528
WIRE 480 592 480 528
FLAG 480 592 0
SYMBOL voltage 64 112 R0
WINDOW 123 0 0 Left 0
WINDOW 39 0 0 Left 0
SYMATTR InstName V1
SYMATTR Value PWL(0 0V 100m 15V)
SYMBOL diode 304 416 R180
WINDOW 0 24 64 Left 2
WINDOW 3 24 0 Left 2
SYMATTR InstName D1
SYMATTR Value BZX84C12L
SYMATTR Description Diode
SYMATTR Type diode
SYMBOL res 272 96 R0
SYMATTR InstName R1
SYMATTR Value 2.2K
SYMBOL res 480 240 R90
WINDOW 0 0 56 VBottom 2
WINDOW 3 32 56 VTop 2
SYMATTR InstName R2
SYMATTR Value 1K
SYMBOL pnp 768 144 M270
SYMATTR InstName Q1
SYMATTR Value BC557C
SYMBOL pnp 528 304 M180
SYMATTR InstName Q2
SYMATTR Value BC557C
SYMBOL res 704 352 R0
SYMATTR InstName R3
SYMATTR Value 4.7K
SYMBOL res 896 192 R0
SYMATTR InstName R4
SYMATTR Value 10K
TEXT 24 544 Left 2 !.tran 100m
